data_image0
_chemical_formula_structural       CuP6H2Pb9O26
_chemical_formula_sum              "Cu1 P6 H2 Pb9 O26"
_cell_length_a       7.50581
_cell_length_b       9.90579
_cell_length_c       9.98762
_cell_angle_alpha    60.8555
_cell_angle_beta     89.7998
_cell_angle_gamma    89.8607

_space_group_name_H-M_alt    "P 1"
_space_group_IT_number       1

loop_
  _space_group_symop_operation_xyz
  'x, y, z'

loop_
  _atom_site_type_symbol
  _atom_site_label
  _atom_site_symmetry_multiplicity
  _atom_site_fract_x
  _atom_site_fract_y
  _atom_site_fract_z
  _atom_site_occupancy
  Cu  Cu1       1.0  0.65905  0.29809  0.94655  1.0000
  P   P1        1.0  0.76837  0.96430  0.40606  1.0000
  P   P2        1.0  0.77067  0.40217  0.61375  1.0000
  P   P3        1.0  0.75653  0.61194  0.97312  1.0000
  P   P4        1.0  0.27176  0.37594  0.02909  1.0000
  P   P5        1.0  0.26298  0.59235  0.37143  1.0000
  P   P6        1.0  0.26308  0.01863  0.59665  1.0000
  H   H1        1.0  0.64681  0.04148  0.11994  1.0000
  H   H2        1.0  0.97162  0.04194  0.99910  1.0000
  Pb  Pb1       1.0  0.74512  0.74296  0.24673  1.0000
  Pb  Pb2       1.0  0.73408  0.99104  0.75100  1.0000
  Pb  Pb3       1.0  0.51572  0.32178  0.32910  1.0000
  Pb  Pb4       1.0  0.50171  0.66350  0.65322  1.0000
  Pb  Pb5       1.0  0.22326  0.75328  0.00424  1.0000
  Pb  Pb6       1.0  0.22223  0.99968  0.23116  1.0000
  Pb  Pb7       1.0  0.22502  0.23304  0.75520  1.0000
  Pb  Pb8       1.0  0.01467  0.65334  0.67087  1.0000
  Pb  Pb9       1.0  0.01142  0.32310  0.32520  1.0000
  O   O1        1.0  0.94344  0.90655  0.36536  1.0000
  O   O2        1.0  0.94915  0.36961  0.70216  1.0000
  O   O3        1.0  0.93710  0.70086  0.91426  1.0000
  O   O4        1.0  0.75601  0.58337  0.51040  1.0000
  O   O5        1.0  0.75254  0.87875  0.58679  1.0000
  O   O6        1.0  0.73186  0.51052  0.89252  1.0000
  O   O7        1.0  0.75777  0.51080  0.15044  1.0000
  O   O8        1.0  0.76731  0.14051  0.34337  1.0000
  O   O9        1.0  0.76190  0.32084  0.51521  1.0000
  O   O10       1.0  0.69334  0.08651  0.01472  1.0000
  O   O11       1.0  0.60922  0.90891  0.34488  1.0000
  O   O12       1.0  0.61098  0.35431  0.72752  1.0000
  O   O13       1.0  0.60522  0.73545  0.91928  1.0000
  O   O14       1.0  0.44709  0.27684  0.08094  1.0000
  O   O15       1.0  0.42922  0.65723  0.26412  1.0000
  O   O16       1.0  0.43264  0.06583  0.65484  1.0000
  O   O17       1.0  0.26922  0.47783  0.10950  1.0000
  O   O18       1.0  0.26565  0.10618  0.41716  1.0000
  O   O19       1.0  0.26812  0.41216  0.45973  1.0000
  O   O20       1.0  0.25525  0.65609  0.48636  1.0000
  O   O21       1.0  0.25721  0.84076  0.66150  1.0000
  O   O22       1.0  0.26353  0.47649  0.85206  1.0000
  O   O23       1.0  0.09587  0.01046  0.99564  1.0000
  O   O24       1.0  0.11148  0.26234  0.09502  1.0000
  O   O25       1.0  0.09542  0.64640  0.26373  1.0000
  O   O26       1.0  0.09720  0.07584  0.65011  1.0000
