data_image0
_chemical_formula_structural       P6Pb10O25
_chemical_formula_sum              "P6 Pb10 O25"
_cell_length_a       10.0321
_cell_length_b       10.0321
_cell_length_c       7.4925
_cell_angle_alpha    90
_cell_angle_beta     90
_cell_angle_gamma    120

_space_group_name_H-M_alt    "P 1"
_space_group_IT_number       1

loop_
  _space_group_symop_operation_xyz
  'x, y, z'

loop_
  _atom_site_type_symbol
  _atom_site_label
  _atom_site_symmetry_multiplicity
  _atom_site_fract_x
  _atom_site_fract_y
  _atom_site_fract_z
  _atom_site_occupancy
  P   P1        1.0  0.95705  0.26127  0.24728  1.0000
  P   P2        1.0  0.70031  0.06185  0.74723  1.0000
  P   P3        1.0  0.73873  0.69579  0.24728  1.0000
  P   P4        1.0  0.93815  0.63845  0.74723  1.0000
  P   P5        1.0  0.30421  0.04295  0.24728  1.0000
  P   P6        1.0  0.36155  0.29969  0.74723  1.0000
  Pb  Pb1       1.0  0.32935  0.43773  0.24685  1.0000
  Pb  Pb2       1.0  0.33872  0.93123  0.74706  1.0000
  Pb  Pb3       1.0  0.56227  0.89161  0.24685  1.0000
  Pb  Pb4       1.0  0.06877  0.40749  0.74706  1.0000
  Pb  Pb5       1.0  0.10839  0.67065  0.24685  1.0000
  Pb  Pb6       1.0  0.59251  0.66128  0.74706  1.0000
  Pb  Pb7       1.0  0.00000  0.00000  0.00199  1.0000
  Pb  Pb8       1.0  0.66667  0.33333  0.00719  1.0000
  Pb  Pb9       1.0  0.66667  0.33333  0.48703  1.0000
  Pb  Pb10      1.0  0.00000  0.00000  0.49275  1.0000
  O   O1        1.0  0.83365  0.31198  0.24714  1.0000
  O   O2        1.0  0.80226  0.98648  0.74734  1.0000
  O   O3        1.0  0.68802  0.52167  0.24714  1.0000
  O   O4        1.0  0.01352  0.81578  0.74734  1.0000
  O   O5        1.0  0.47833  0.16635  0.24714  1.0000
  O   O6        1.0  0.18422  0.19774  0.74734  1.0000
  O   O7        1.0  0.06295  0.32339  0.07901  1.0000
  O   O8        1.0  0.59322  0.01695  0.91412  1.0000
  O   O9        1.0  0.67661  0.73956  0.07901  1.0000
  O   O10       1.0  0.98305  0.57627  0.91412  1.0000
  O   O11       1.0  0.26044  0.93705  0.07901  1.0000
  O   O12       1.0  0.42373  0.40678  0.91412  1.0000
  O   O13       1.0  0.59299  0.01655  0.58054  1.0000
  O   O14       1.0  0.06308  0.32382  0.41539  1.0000
  O   O15       1.0  0.98345  0.57644  0.58054  1.0000
  O   O16       1.0  0.67618  0.73926  0.41539  1.0000
  O   O17       1.0  0.42356  0.40701  0.58054  1.0000
  O   O18       1.0  0.26074  0.93692  0.41539  1.0000
  O   O19       1.0  0.87807  0.08140  0.24753  1.0000
  O   O20       1.0  0.80559  0.24340  0.74696  1.0000
  O   O21       1.0  0.91860  0.79667  0.24753  1.0000
  O   O22       1.0  0.75660  0.56219  0.74696  1.0000
  O   O23       1.0  0.20333  0.12193  0.24753  1.0000
  O   O24       1.0  0.43781  0.19441  0.74696  1.0000
  O   O25       1.0  0.33333  0.66667  0.24588  1.0000
