data_image0
_chemical_formula_structural       CuP6Pb9O25
_chemical_formula_sum              "Cu1 P6 Pb9 O25"
_cell_length_a       7.50798
_cell_length_b       9.96802
_cell_length_c       10.1147
_cell_angle_alpha    60.8455
_cell_angle_beta     89.2214
_cell_angle_gamma    88.7192

_space_group_name_H-M_alt    "P 1"
_space_group_IT_number       1

loop_
  _space_group_symop_operation_xyz
  'x, y, z'

loop_
  _atom_site_type_symbol
  _atom_site_label
  _atom_site_symmetry_multiplicity
  _atom_site_fract_x
  _atom_site_fract_y
  _atom_site_fract_z
  _atom_site_occupancy
  Cu  Cu1       1.0  0.81995  0.05629  0.70539  1.0000
  P   P1        1.0  0.25431  0.36649  0.92279  1.0000
  P   P2        1.0  0.21559  0.93203  0.72077  1.0000
  P   P3        1.0  0.26121  0.71473  0.36008  1.0000
  P   P4        1.0  0.77515  0.30408  0.72249  1.0000
  P   P5        1.0  0.74156  0.71556  0.96497  1.0000
  P   P6        1.0  0.74805  0.96465  0.30435  1.0000
  Pb  Pb1       1.0  0.49449  0.66304  0.65740  1.0000
  Pb  Pb2       1.0  0.01665  0.99050  0.02954  1.0000
  Pb  Pb3       1.0  0.49285  0.00977  0.98338  1.0000
  Pb  Pb4       1.0  0.99684  0.68425  0.66129  1.0000
  Pb  Pb5       1.0  0.25996  0.56864  0.09045  1.0000
  Pb  Pb6       1.0  0.27124  0.11720  0.31893  1.0000
  Pb  Pb7       1.0  0.27506  0.33740  0.54127  1.0000
  Pb  Pb8       1.0  0.75596  0.60253  0.32134  1.0000
  Pb  Pb9       1.0  0.75799  0.33635  0.06911  1.0000
  O   O1        1.0  0.42239  0.40607  0.98684  1.0000
  O   O2        1.0  0.32071  0.04784  0.58026  1.0000
  O   O3        1.0  0.43337  0.61012  0.40490  1.0000
  O   O4        1.0  0.94768  0.24555  0.67388  1.0000
  O   O5        1.0  0.91466  0.70765  0.05149  1.0000
  O   O6        1.0  0.92092  0.06062  0.24048  1.0000
  O   O7        1.0  0.62629  0.21412  0.68995  1.0000
  O   O8        1.0  0.59314  0.64028  0.08848  1.0000
  O   O9        1.0  0.58817  0.08136  0.25318  1.0000
  O   O10       1.0  0.08731  0.41401  0.98521  1.0000
  O   O11       1.0  0.01166  0.94040  0.67992  1.0000
  O   O12       1.0  0.09702  0.61056  0.39500  1.0000
  O   O13       1.0  0.25143  0.19105  0.97601  1.0000
  O   O14       1.0  0.24235  0.96742  0.85236  1.0000
  O   O15       1.0  0.26599  0.83879  0.18868  1.0000
  O   O16       1.0  0.75326  0.47909  0.63569  1.0000
  O   O17       1.0  0.76059  0.63041  0.87096  1.0000
  O   O18       1.0  0.75197  0.85357  0.47586  1.0000
  O   O19       1.0  0.25885  0.46302  0.74645  1.0000
  O   O20       1.0  0.27104  0.76268  0.76932  1.0000
  O   O21       1.0  0.25491  0.79500  0.46050  1.0000
  O   O22       1.0  0.77480  0.24134  0.89798  1.0000
  O   O23       1.0  0.68100  0.88646  0.85661  1.0000
  O   O24       1.0  0.73209  0.86719  0.21818  1.0000
  O   O25       1.0  0.26732  0.34856  0.31491  1.0000
