data_image0
_chemical_formula_structural       CuP6Pb9O25
_chemical_formula_sum              "Cu1 P6 Pb9 O25"
_cell_length_a       9.92525
_cell_length_b       9.92525
_cell_length_c       7.4483
_cell_angle_alpha    90
_cell_angle_beta     90
_cell_angle_gamma    120

_space_group_name_H-M_alt    "P 1"
_space_group_IT_number       1

loop_
  _space_group_symop_operation_xyz
  'x, y, z'

loop_
  _atom_site_type_symbol
  _atom_site_label
  _atom_site_symmetry_multiplicity
  _atom_site_fract_x
  _atom_site_fract_y
  _atom_site_fract_z
  _atom_site_occupancy
  Cu  Cu1       1.0  0.00000  0.00000  0.49783  1.0000
  P   P1        1.0  0.35592  0.07055  0.73719  1.0000
  P   P2        1.0  0.92945  0.28537  0.73719  1.0000
  P   P3        1.0  0.71463  0.64408  0.73719  1.0000
  P   P4        1.0  0.29570  0.26632  0.26152  1.0000
  P   P5        1.0  0.73368  0.02938  0.26152  1.0000
  P   P6        1.0  0.97062  0.70430  0.26152  1.0000
  Pb  Pb1       1.0  0.66667  0.33333  0.49157  1.0000
  Pb  Pb2       1.0  0.00000  0.00000  0.96448  1.0000
  Pb  Pb3       1.0  0.66667  0.33333  0.98205  1.0000
  Pb  Pb4       1.0  0.56312  0.89582  0.73591  1.0000
  Pb  Pb5       1.0  0.10418  0.66730  0.73591  1.0000
  Pb  Pb6       1.0  0.33270  0.43688  0.73591  1.0000
  Pb  Pb7       1.0  0.05583  0.38435  0.26019  1.0000
  Pb  Pb8       1.0  0.61565  0.67148  0.26019  1.0000
  Pb  Pb9       1.0  0.32852  0.94417  0.26019  1.0000
  O   O1        1.0  0.41051  0.00619  0.57687  1.0000
  O   O2        1.0  0.99381  0.40431  0.57687  1.0000
  O   O3        1.0  0.59569  0.58949  0.57687  1.0000
  O   O4        1.0  0.22131  0.28051  0.08413  1.0000
  O   O5        1.0  0.71949  0.94080  0.08413  1.0000
  O   O6        1.0  0.05920  0.77869  0.08413  1.0000
  O   O7        1.0  0.27819  0.37590  0.39917  1.0000
  O   O8        1.0  0.62410  0.90228  0.39917  1.0000
  O   O9        1.0  0.09772  0.72181  0.39917  1.0000
  O   O10       1.0  0.40034  0.01704  0.91274  1.0000
  O   O11       1.0  0.98296  0.38330  0.91274  1.0000
  O   O12       1.0  0.61670  0.59966  0.91274  1.0000
  O   O13       1.0  0.17868  0.01065  0.72298  1.0000
  O   O14       1.0  0.98935  0.16802  0.72298  1.0000
  O   O15       1.0  0.83198  0.82132  0.72298  1.0000
  O   O16       1.0  0.46821  0.31026  0.23820  1.0000
  O   O17       1.0  0.68974  0.15796  0.23820  1.0000
  O   O18       1.0  0.84204  0.53179  0.23820  1.0000
  O   O19       1.0  0.45463  0.25276  0.72894  1.0000
  O   O20       1.0  0.74724  0.20187  0.72894  1.0000
  O   O21       1.0  0.79813  0.54537  0.72894  1.0000
  O   O22       1.0  0.20340  0.09253  0.33071  1.0000
  O   O23       1.0  0.90747  0.11087  0.33071  1.0000
  O   O24       1.0  0.88913  0.79660  0.33071  1.0000
  O   O25       1.0  0.33333  0.66667  0.73267  1.0000
