data_image0
_chemical_formula_structural       CuP6Pb9O25
_chemical_formula_sum              "Cu1 P6 Pb9 O25"
_cell_length_a       7.52594
_cell_length_b       9.944
_cell_length_c       9.97954
_cell_angle_alpha    119.794
_cell_angle_beta     90.6628
_cell_angle_gamma    90.4688

_space_group_name_H-M_alt    "P 1"
_space_group_IT_number       1

loop_
  _space_group_symop_operation_xyz
  'x, y, z'

loop_
  _atom_site_type_symbol
  _atom_site_label
  _atom_site_symmetry_multiplicity
  _atom_site_fract_x
  _atom_site_fract_y
  _atom_site_fract_z
  _atom_site_occupancy
  Cu  Cu1       1.0  0.59484  0.36402  0.50876  1.0000
  P   P1        1.0  0.75444  0.71200  0.63885  1.0000
  P   P2        1.0  0.75162  0.35972  0.06870  1.0000
  P   P3        1.0  0.75423  0.92590  0.28702  1.0000
  P   P4        1.0  0.25537  0.96487  0.68983  1.0000
  P   P5        1.0  0.26458  0.30775  0.27035  1.0000
  P   P6        1.0  0.25186  0.72456  0.03504  1.0000
  Pb  Pb1       1.0  0.50638  0.66079  0.32955  1.0000
  Pb  Pb2       1.0  0.99297  0.01768  0.01293  1.0000
  Pb  Pb3       1.0  0.51611  0.99056  0.99796  1.0000
  Pb  Pb4       1.0  0.99358  0.65201  0.33340  1.0000
  Pb  Pb5       1.0  0.73893  0.56515  0.90196  1.0000
  Pb  Pb6       1.0  0.72933  0.10368  0.65264  1.0000
  Pb  Pb7       1.0  0.25425  0.32974  0.92065  1.0000
  Pb  Pb8       1.0  0.22801  0.06881  0.40531  1.0000
  Pb  Pb9       1.0  0.22526  0.59867  0.67177  1.0000
  O   O1        1.0  0.59859  0.58892  0.58466  1.0000
  O   O2        1.0  0.58702  0.40436  0.00127  1.0000
  O   O3        1.0  0.58848  0.98796  0.39257  1.0000
  O   O4        1.0  0.08986  0.06976  0.75453  1.0000
  O   O5        1.0  0.10372  0.22734  0.29941  1.0000
  O   O6        1.0  0.08996  0.67046  0.91929  1.0000
  O   O7        1.0  0.42110  0.07715  0.74507  1.0000
  O   O8        1.0  0.43654  0.26559  0.32982  1.0000
  O   O9        1.0  0.42254  0.68980  0.93658  1.0000
  O   O10       1.0  0.93740  0.63275  0.59049  1.0000
  O   O11       1.0  0.92201  0.40776  0.01305  1.0000
  O   O12       1.0  0.92265  0.98648  0.39532  1.0000
  O   O13       1.0  0.74873  0.82208  0.81646  1.0000
  O   O14       1.0  0.75017  0.18166  0.00799  1.0000
  O   O15       1.0  0.75769  0.97566  0.16240  1.0000
  O   O16       1.0  0.24830  0.86106  0.51184  1.0000
  O   O17       1.0  0.24528  0.48573  0.34858  1.0000
  O   O18       1.0  0.25098  0.64514  0.13462  1.0000
  O   O19       1.0  0.72402  0.80294  0.54988  1.0000
  O   O20       1.0  0.74602  0.45457  0.24806  1.0000
  O   O21       1.0  0.74842  0.74464  0.20689  1.0000
  O   O22       1.0  0.26933  0.86087  0.76816  1.0000
  O   O23       1.0  0.27696  0.23473  0.08990  1.0000
  O   O24       1.0  0.24160  0.90599  0.14171  1.0000
  O   O25       1.0  0.69511  0.33735  0.66008  1.0000
