data_image0
_chemical_formula_structural       Ag2P6Pb8O24
_chemical_formula_sum              "Ag2 P6 Pb8 O24"
_cell_length_a       9.95828
_cell_length_b       9.95828
_cell_length_c       7.34842
_cell_angle_alpha    90
_cell_angle_beta     90
_cell_angle_gamma    120

_space_group_name_H-M_alt    "P 1"
_space_group_IT_number       1

loop_
  _space_group_symop_operation_xyz
  'x, y, z'

loop_
  _atom_site_type_symbol
  _atom_site_label
  _atom_site_symmetry_multiplicity
  _atom_site_fract_x
  _atom_site_fract_y
  _atom_site_fract_z
  _atom_site_occupancy
  Ag  Ag1       1.0  0.66667  0.33333  0.99501  1.0000
  Ag  Ag2       1.0  0.33333  0.66667  0.00499  1.0000
  P   P1        1.0  0.39284  0.01878  0.24663  1.0000
  P   P2        1.0  0.98122  0.37406  0.24663  1.0000
  P   P3        1.0  0.62594  0.60716  0.24663  1.0000
  P   P4        1.0  0.37406  0.39284  0.75337  1.0000
  P   P5        1.0  0.01878  0.62594  0.75337  1.0000
  P   P6        1.0  0.60716  0.98122  0.75337  1.0000
  Pb  Pb1       1.0  0.26292  0.26747  0.23680  1.0000
  Pb  Pb2       1.0  0.00455  0.73708  0.23680  1.0000
  Pb  Pb3       1.0  0.73253  0.99545  0.23680  1.0000
  Pb  Pb4       1.0  0.66667  0.33333  0.50307  1.0000
  Pb  Pb5       1.0  0.33333  0.66667  0.49693  1.0000
  Pb  Pb6       1.0  0.26747  0.00455  0.76320  1.0000
  Pb  Pb7       1.0  0.99545  0.26292  0.76320  1.0000
  Pb  Pb8       1.0  0.73708  0.73253  0.76320  1.0000
  O   O1        1.0  0.31267  0.06229  0.09267  1.0000
  O   O2        1.0  0.93771  0.25038  0.09267  1.0000
  O   O3        1.0  0.74962  0.68733  0.09267  1.0000
  O   O4        1.0  0.57135  0.09721  0.20619  1.0000
  O   O5        1.0  0.52587  0.42865  0.20619  1.0000
  O   O6        1.0  0.90279  0.47413  0.20619  1.0000
  O   O7        1.0  0.16042  0.47890  0.25690  1.0000
  O   O8        1.0  0.52110  0.68152  0.25690  1.0000
  O   O9        1.0  0.31848  0.83958  0.25690  1.0000
  O   O10       1.0  0.37174  0.08966  0.42570  1.0000
  O   O11       1.0  0.91034  0.28208  0.42570  1.0000
  O   O12       1.0  0.71792  0.62826  0.42570  1.0000
  O   O13       1.0  0.28208  0.37174  0.57430  1.0000
  O   O14       1.0  0.08966  0.71792  0.57430  1.0000
  O   O15       1.0  0.62826  0.91034  0.57430  1.0000
  O   O16       1.0  0.68152  0.16042  0.74310  1.0000
  O   O17       1.0  0.47890  0.31848  0.74310  1.0000
  O   O18       1.0  0.83958  0.52110  0.74310  1.0000
  O   O19       1.0  0.09721  0.52587  0.79381  1.0000
  O   O20       1.0  0.47413  0.57135  0.79381  1.0000
  O   O21       1.0  0.42865  0.90279  0.79381  1.0000
  O   O22       1.0  0.25038  0.31267  0.90733  1.0000
  O   O23       1.0  0.06229  0.74962  0.90733  1.0000
  O   O24       1.0  0.68733  0.93771  0.90733  1.0000
