data_image0
_chemical_formula_structural       Cu2P6Pb8O24
_chemical_formula_sum              "Cu2 P6 Pb8 O24"
_cell_length_a       9.84474
_cell_length_b       9.84474
_cell_length_c       7.31865
_cell_angle_alpha    90
_cell_angle_beta     90
_cell_angle_gamma    120

_space_group_name_H-M_alt    "P 1"
_space_group_IT_number       1

loop_
  _space_group_symop_operation_xyz
  'x, y, z'

loop_
  _atom_site_type_symbol
  _atom_site_label
  _atom_site_symmetry_multiplicity
  _atom_site_fract_x
  _atom_site_fract_y
  _atom_site_fract_z
  _atom_site_occupancy
  Cu  Cu1       1.0  0.66667  0.33333  0.49456  1.0000
  Cu  Cu2       1.0  0.33333  0.66667  0.50544  1.0000
  P   P1        1.0  0.37602  0.39734  0.26096  1.0000
  P   P2        1.0  0.02132  0.62398  0.26096  1.0000
  P   P3        1.0  0.60266  0.97868  0.26096  1.0000
  P   P4        1.0  0.39734  0.02132  0.73904  1.0000
  P   P5        1.0  0.97868  0.37602  0.73904  1.0000
  P   P6        1.0  0.62398  0.60266  0.73904  1.0000
  Pb  Pb1       1.0  0.33333  0.66667  0.99296  1.0000
  Pb  Pb2       1.0  0.27225  0.00544  0.26795  1.0000
  Pb  Pb3       1.0  0.99456  0.26681  0.26795  1.0000
  Pb  Pb4       1.0  0.73319  0.72775  0.26795  1.0000
  Pb  Pb5       1.0  0.26681  0.27225  0.73205  1.0000
  Pb  Pb6       1.0  0.00544  0.73319  0.73205  1.0000
  Pb  Pb7       1.0  0.72775  0.99456  0.73205  1.0000
  Pb  Pb8       1.0  0.66667  0.33333  0.00704  1.0000
  O   O1        1.0  0.29194  0.37899  0.07531  1.0000
  O   O2        1.0  0.08705  0.70806  0.07531  1.0000
  O   O3        1.0  0.62101  0.91295  0.07531  1.0000
  O   O4        1.0  0.66735  0.15847  0.25701  1.0000
  O   O5        1.0  0.49112  0.33265  0.25701  1.0000
  O   O6        1.0  0.84153  0.50888  0.25701  1.0000
  O   O7        1.0  0.11119  0.53551  0.31637  1.0000
  O   O8        1.0  0.46449  0.57568  0.31637  1.0000
  O   O9        1.0  0.42432  0.88881  0.31637  1.0000
  O   O10       1.0  0.24329  0.30208  0.40444  1.0000
  O   O11       1.0  0.05880  0.75671  0.40444  1.0000
  O   O12       1.0  0.69792  0.94120  0.40444  1.0000
  O   O13       1.0  0.30208  0.05880  0.59556  1.0000
  O   O14       1.0  0.94120  0.24329  0.59556  1.0000
  O   O15       1.0  0.75671  0.69792  0.59556  1.0000
  O   O16       1.0  0.57568  0.11119  0.68363  1.0000
  O   O17       1.0  0.53551  0.42432  0.68363  1.0000
  O   O18       1.0  0.88881  0.46449  0.68363  1.0000
  O   O19       1.0  0.15847  0.49112  0.74299  1.0000
  O   O20       1.0  0.50888  0.66735  0.74299  1.0000
  O   O21       1.0  0.33265  0.84153  0.74299  1.0000
  O   O22       1.0  0.37899  0.08705  0.92469  1.0000
  O   O23       1.0  0.91295  0.29194  0.92469  1.0000
  O   O24       1.0  0.70806  0.62101  0.92469  1.0000
